<?xml version="1.0" encoding="UTF-8"?>
<febio_spec version="3.0">
    <!--Created using GIBBON, 09-Jun-2021 16:51:46-->
    <Module type="fluid-FSI"/>
    <Control>
        <analysis>Dynamic</analysis>
        <time_steps>1550</time_steps>
        <step_size>1.0000000e-03</step_size>
        <solver>
            <max_refs>5</max_refs>
            <max_ups>50</max_ups>
            <diverge_reform>0</diverge_reform>
            <reform_each_time_step>0</reform_each_time_step>
            <dtol>1.0000000e-03</dtol>
            <etol>1.0000000e-02</etol>
            <rtol>1.0000000e-03</rtol>
            <lstol>9.0000000e-01</lstol>
            <lsmin>1.0000000e-02</lsmin>
            <lsiter>5</lsiter>
            <min_residual>1.0000000e-16</min_residual>
            <optimize_bw>0</optimize_bw>
            <qnmethod>BROYDEN</qnmethod>
            <cmax>100000</cmax>
            <vtol>1.0000000e-03</vtol>
            <ftol>1.0000000e-03</ftol>
            <max_residual>10000000000</max_residual>
            <rhoi>0</rhoi>
            <symmetric_stiffness>0</symmetric_stiffness>
        </solver>
        <time_stepper>
            <dtmin>1.0000000e-04</dtmin>
            <dtmax>1.0000000e-03</dtmax>
            <max_retries>9</max_retries>
            <opt_iter>53</opt_iter>
        </time_stepper>
        <plot_level>PLOT_MAJOR_ITRS</plot_level>
        <plot_range>0, -1</plot_range>
        <plot_stride>1</plot_stride>
        <plot_zero_state>0</plot_zero_state>
        <output_level>OUTPUT_MAJOR_ITRS</output_level>
    </Control>
    <Globals>
        <Constants>
            <T>0</T>
            <R>0</R>
            <Fc>0</Fc>
        </Constants>
    </Globals>
    <Material>
        <material id="1" name="artery-wall" type="neo-Hookean">
            <E>11700</E>
            <v>3.0000000e-01</v>
            <density>1000</density>
        </material>
        <material id="2" name="blood" type="fluid-FSI">
            <fluid type="fluid">
                <density>1060</density>
                <k>2200000000</k>
                <viscous type="Carreau">
                    <mu0>5.6000000e-02</mu0>
                    <mui>3.4500000e-03</mui>
                    <lambda>3.3130000e+00</lambda>
                    <n>3.5680000e-01</n>
                </viscous>
            </fluid>
        </material>
    </Material>
    <Mesh>
        <Nodes name="nodes">
                <node id="1">1.2393228e-01, 9.4793312e-01, 7.3784165e-01</node>
                <node id="2">4.9035729e-01, 8.2071207e-02, 6.3404501e-02</node>
                <node id="3">8.5299816e-01, 1.0570943e-01, 8.6044056e-01</node>
                <node id="4">8.7392741e-01, 1.4204112e-01, 9.3440512e-01</node>
                <node id="5">2.7029433e-01, 1.6646044e-01, 9.8439831e-01</node>
                <node id="6">2.0846136e-01, 6.2095864e-01, 8.5893882e-01</node>
                <node id="7">5.6497957e-01, 5.7370976e-01, 7.8555899e-01</node>
                <node id="8">6.4031183e-01, 5.2077890e-02, 5.1337742e-01</node>
                <node id="9">4.1702895e-01, 9.3120138e-01, 1.7760246e-01</node>
                <node id="10">2.0597552e-01, 7.2866168e-01, 3.9858950e-01</node>
        </Nodes>
        <Elements name="fluid" type="tet4">
                <elem id="1">10, 9, 5, 6</elem>
                <elem id="2">1, 0, 1, 0</elem>
                <elem id="3">8, 2, 10, 0</elem>
                <elem id="4">8, 0, 3, 8</elem>
                <elem id="5">6, 4, 3, 9</elem>
                <elem id="6">2, 0, 0, 5</elem>
                <elem id="7">6, 9, 3, 1</elem>
                <elem id="8">3, 2, 0, 9</elem>
                <elem id="9">1, 1, 5, 3</elem>
                <elem id="10">2, 3, 8, 3</elem>
        </Elements>
        <Elements name="solid" type="tet4">
                <elem id="1">1, 6, 10, 1</elem>
                <elem id="2">0, 9, 5, 3</elem>
                <elem id="3">10, 3, 7, 0</elem>
                <elem id="4">3, 4, 10, 5</elem>
                <elem id="5">3, 0, 3, 3</elem>
                <elem id="6">3, 1, 4, 1</elem>
                <elem id="7">5, 7, 5, 2</elem>
                <elem id="8">7, 3, 8, 9</elem>
                <elem id="9">0, 9, 9, 7</elem>
                <elem id="10">9, 1, 1, 5</elem>
        </Elements>
        <Surface name="inlet-solid">
                <tri3 id="1">8, 7, 6</tri3>
                <tri3 id="2">0, 6, 5</tri3>
                <tri3 id="3">0, 4, 9</tri3>
                <tri3 id="4">7, 0, 8</tri3>
                <tri3 id="5">6, 8, 8</tri3>
                <tri3 id="6">5, 3, 0</tri3>
                <tri3 id="7">8, 6, 0</tri3>
                <tri3 id="8">7, 8, 0</tri3>
                <tri3 id="9">8, 1, 8</tri3>
                <tri3 id="10">3, 1, 10</tri3>
        </Surface>
        <Surface name="inlet-fluid">
                <tri3 id="1">5, 1, 1</tri3>
                <tri3 id="2">1, 8, 10</tri3>
                <tri3 id="3">8, 3, 2</tri3>
                <tri3 id="4">1, 6, 2</tri3>
                <tri3 id="5">3, 10, 8</tri3>
                <tri3 id="6">2, 4, 5</tri3>
                <tri3 id="7">5, 7, 8</tri3>
                <tri3 id="8">1, 8, 4</tri3>
                <tri3 id="9">4, 4, 3</tri3>
                <tri3 id="10">1, 7, 0</tri3>
        </Surface>
        <Surface name="outlet-solid">
                <tri3 id="1">7, 8, 8</tri3>
                <tri3 id="2">1, 2, 4</tri3>
                <tri3 id="3">7, 8, 2</tri3>
                <tri3 id="4">1, 10, 0</tri3>
                <tri3 id="5">1, 9, 8</tri3>
                <tri3 id="6">7, 0, 2</tri3>
                <tri3 id="7">3, 4, 4</tri3>
                <tri3 id="8">7, 4, 6</tri3>
                <tri3 id="9">8, 7, 2</tri3>
                <tri3 id="10">6, 6, 7</tri3>
        </Surface>
        <Surface name="outlet-fluid">
                <tri3 id="1">7, 1, 1</tri3>
                <tri3 id="2">4, 0, 1</tri3>
                <tri3 id="3">4, 4, 1</tri3>
                <tri3 id="4">6, 7, 2</tri3>
                <tri3 id="5">0, 7, 3</tri3>
                <tri3 id="6">3, 5, 3</tri3>
                <tri3 id="7">8, 1, 2</tri3>
                <tri3 id="8">7, 6, 2</tri3>
                <tri3 id="9">1, 1, 9</tri3>
                <tri3 id="10">1, 1, 7</tri3>
        </Surface>
        <Surface name="FSIInterface">
                <tri3 id="1">6, 10, 1</tri3>
                <tri3 id="2">2, 1, 4</tri3>
                <tri3 id="3">2, 2, 1</tri3>
                <tri3 id="4">0, 4, 8</tri3>
                <tri3 id="5">10, 0, 9</tri3>
                <tri3 id="6">7, 7, 3</tri3>
                <tri3 id="7">6, 4, 7</tri3>
                <tri3 id="8">3, 10, 3</tri3>
                <tri3 id="9">1, 4, 5</tri3>
                <tri3 id="10">6, 6, 9</tri3>
        </Surface>
    </Mesh>
    <MeshDomains>
        <SolidDomain mat="artery-wall" name="solid"/>
        <SolidDomain mat="blood" name="fluid"/>
    </MeshDomains>
    <Boundary>
        <bc name="fix-inlet-solid" node_set="@surface:inlet-solid" type="fix">
            <dofs>x, y, z</dofs>
        </bc>
        <bc name="fix-outlet-solid" node_set="@surface:outlet-solid" type="fix">
            <dofs>x, y, z</dofs>
        </bc>
    </Boundary>
    <Loads>
        <surface_load name="FSIInterfaceTraction" surface="FSIInterface" type="fluid-FSI traction"/>
        <surface_load name="inlet-fluid" type="fluid pressure">
            <pressure lc="1">500</pressure>
        </surface_load>
        <surface_load name="inlet-fluid" type="fluid backflow stabilization">
            <beta lc="2">1</beta>
        </surface_load>
        <surface_load name="inlet-fluid" type="fluid tangential stabilization">
            <beta lc="3">1</beta>
        </surface_load>
        <surface_load name="outlet-fluid" type="fluid pressure">
            <pressure lc="4">0</pressure>
        </surface_load>
        <surface_load name="outlet-fluid" type="fluid backflow stabilization">
            <beta lc="5">1</beta>
        </surface_load>
        <surface_load name="outlet-fluid" type="fluid tangential stabilization">
            <beta lc="6">1</beta>
        </surface_load>
    </Loads>
    <LoadData>
        <load_controller id="1" type="loadcurve">
            <interpolate>SMOOTH</interpolate>
            <extend>REPEAT</extend>
            <points>
                    <point>0.0000000e+00, 0.0000000e+00</point>
                    <point>5.0050050e-03, 2.4721396e-04</point>
                    <point>1.0010010e-02, 9.8861137e-04</point>
                    <point>1.5015015e-02, 2.2234591e-03</point>
                    <point>2.0020020e-02, 3.9505361e-03</point>
                    <point>2.5025025e-02, 6.1681344e-03</point>
                    <point>3.0030030e-02, 8.8740613e-03</point>
                    <point>3.5035035e-02, 1.2065641e-02</point>
                    <point>4.0040040e-02, 1.5739717e-02</point>
                    <point>4.5045045e-02, 1.9892657e-02</point>
                    <point>5.0050050e-02, 2.4520354e-02</point>
                    <point>5.5055055e-02, 2.9618232e-02</point>
                    <point>6.0060060e-02, 3.5181249e-02</point>
                    <point>6.5065065e-02, 4.1203906e-02</point>
                    <point>7.0070070e-02, 4.7680245e-02</point>
                    <point>7.5075075e-02, 5.4603864e-02</point>
                    <point>8.0080080e-02, 6.1967915e-02</point>
                    <point>8.5085085e-02, 6.9765116e-02</point>
                    <point>9.0090090e-02, 7.7987758e-02</point>
                    <point>9.5095095e-02, 8.6627709e-02</point>
<!-- ... 980 like lines cut -->
            </points>
        </load_controller>
        <load_controller id="2" type="loadcurve">
            <interpolate>STEP</interpolate>
            <points>
                    <point>0, 0</point>
                    <point>1, 1</point>
            </points>
        </load_controller>
        <load_controller id="3" type="loadcurve">
            <interpolate>STEP</interpolate>
            <points>
                    <point>0, 0</point>
                    <point>1, 1</point>
            </points>
        </load_controller>
        <load_controller id="4" type="loadcurve">
            <interpolate>SMOOTH</interpolate>
            <points>
                    <point>0, 0</point>
                    <point>1, 1</point>
            </points>
        </load_controller>
        <load_controller id="5" type="loadcurve">
            <interpolate>STEP</interpolate>
            <points>
                    <point>0, 0</point>
                    <point>1, 1</point>
            </points>
        </load_controller>
        <load_controller id="6" type="loadcurve">
            <interpolate>STEP</interpolate>
            <points>
                    <point>0, 0</point>
                    <point>1, 1</point>
            </points>
        </load_controller>
    </LoadData>
    <Output>
        <plotfile type="febio">
            <var type="displacement"/>
            <var type="stress"/>
            <var type="relative volume"/>
            <var type="reaction forces"/>
            <var type="contact pressure"/>
        </plotfile>
    </Output>
</febio_spec>
